Version 4
SHEET 1 2120 680
WIRE -16 -32 -96 -32
WIRE -16 16 -16 -32
WIRE 448 32 320 32
WIRE 592 32 448 32
WIRE 448 48 448 32
WIRE 0 80 -16 80
WIRE 0 112 0 80
WIRE 48 112 0 112
WIRE 192 112 128 112
WIRE 320 112 320 96
WIRE 320 112 256 112
WIRE 320 128 320 112
WIRE 592 160 592 32
WIRE 0 208 0 112
WIRE 0 208 -192 208
WIRE 320 208 320 192
WIRE 512 208 320 208
WIRE 320 224 320 208
WIRE 512 224 512 208
WIRE -192 272 -192 208
WIRE 0 304 0 208
WIRE 48 304 0 304
WIRE 176 304 128 304
WIRE 320 304 320 288
WIRE 320 304 240 304
WIRE 448 304 448 112
WIRE 0 336 0 304
WIRE -192 400 -192 352
WIRE 0 400 -192 400
WIRE 320 400 320 368
WIRE 448 400 448 368
WIRE 448 400 320 400
WIRE 592 400 592 240
WIRE 592 400 448 400
WIRE -192 432 -192 400
FLAG -192 432 0
FLAG -96 -32 0
FLAG 512 224 0
SYMBOL cap -32 16 R0
SYMATTR InstName C1
SYMATTR Value 0.8pF
SYMBOL cap -16 336 R0
SYMATTR InstName C2
SYMATTR Value 2.7pF
SYMBOL cap 432 304 R0
SYMATTR InstName C3
SYMATTR Value 100pF
SYMBOL cap 432 48 R0
SYMATTR InstName C4
SYMATTR Value 100pF
SYMBOL cap 240 288 R90
WINDOW 0 0 32 VBottom 2
WINDOW 3 32 32 VTop 2
SYMATTR InstName C5
SYMATTR Value 100pF
SYMBOL cap 256 96 R90
WINDOW 0 0 32 VBottom 2
WINDOW 3 32 32 VTop 2
SYMATTR InstName C6
SYMATTR Value 100pF
SYMBOL ind 32 128 R270
WINDOW 0 32 56 VTop 2
WINDOW 3 5 56 VBottom 2
SYMATTR InstName L1
SYMATTR Value 217.01nH
SYMBOL ind 32 320 R270
WINDOW 0 32 56 VTop 2
WINDOW 3 5 56 VBottom 2
SYMATTR InstName L2
SYMATTR Value 2.14nH
SYMBOL res 576 144 R0
SYMATTR InstName R2
SYMATTR Value 500000
SYMBOL schottky 336 96 R180
WINDOW 0 24 64 Left 2
WINDOW 3 24 0 Left 2
SYMATTR InstName D1
SYMATTR Value DA
SYMBOL schottky 336 192 R180
WINDOW 0 24 64 Left 2
WINDOW 3 24 0 Left 2
SYMATTR InstName D2
SYMATTR Value DB
SYMBOL schottky 336 288 R180
WINDOW 0 24 64 Left 2
WINDOW 3 24 0 Left 2
SYMATTR InstName D3
SYMATTR Value DC
SYMBOL schottky 336 368 R180
WINDOW 0 24 64 Left 2
WINDOW 3 24 0 Left 2
SYMATTR InstName D4
SYMATTR Value DD
SYMBOL voltage -192 256 R0
WINDOW 123 24 124 Left 2
WINDOW 39 0 0 Left 2
SYMATTR InstName V1
SYMATTR Value PULSE(5 0 0 0 0 0 5)
SYMATTR Value2 AC 500 0
TEXT 840 24 Left 2 !.model DA D(IS=3E-6,CJO=0.18E-12,VJ=.35,BV=3.8,IBV=3E-4,EG=0.69,N=1.06,RS=25,XTI=2,M=0.5)
TEXT 840 72 Left 2 !.model DB D(IS=3E-6,CJO=0.18E-12,VJ=.35,BV=3.8,IBV=3E-4,EG=0.69,N=1.06,RS=25,XTI=2,M=0.5)
TEXT 856 120 Left 2 !.model DC D(IS=3E-6,CJO=0.18E-12,VJ=.35,BV=3.8,IBV=3E-4,EG=0.69,N=1.06,RS=25,XTI=2,M=0.5)
TEXT 864 168 Left 2 !.model DD D(IS=3E-6,CJO=0.18E-12,VJ=.35,BV=3.8,IBV=3E-4,EG=0.69,N=1.06,RS=25,XTI=2,M=0.5)
TEXT -226 456 Left 2 !.tran 500
